L6/1726531/Trafos.dss
! ==========================================================
! TRANSFORMADORES DE DISTRIBUICAO — gerados de UNTRMT/EQTRMT
! Secundario 1F/2F: 3 enrolamentos com derivacao central
! Neutro no no 4, aterrado em _ATERRAMENTO.dss
! Kv de BT conforme TEN_LIN_SE da BDGD
! ==========================================================
New Transformer.2723238627_2723238632 phases=3 windings=2 Xhl=3.840
~ wdg=1 bus=node_2917070331.1.2.3 conn=delta Kv=13.8 Kva=150.0 %R=0.565
~ wdg=2 bus=node_2917070289.1.2.3.4 conn=wye Kv=0.2200 Kva=150.0 %R=0.565
New Transformer.1696860622_1696860623 phases=3 windings=2 Xhl=3.840
~ wdg=1 bus=node_2022586542.1.2.3 conn=delta Kv=13.8 Kva=150.0 %R=0.565
~ wdg=2 bus=node_2022586798.1.2.3.4 conn=wye Kv=0.2200 Kva=150.0 %R=0.565
New Transformer.1659588214_2070541496 phases=3 windings=2 Xhl=3.840
~ wdg=1 bus=node_1980766637.1.2.3 conn=delta Kv=13.8 Kva=150.0 %R=0.565
~ wdg=2 bus=node_1980766541.1.2.3.4 conn=wye Kv=0.2200 Kva=150.0 %R=0.565
New Transformer.1626846571_2726196538 phases=3 windings=2 Xhl=3.840
~ wdg=1 bus=node_2922174695.1.2.3 conn=delta Kv=13.8 Kva=150.0 %R=0.565
~ wdg=2 bus=node_2922174650.1.2.3.4 conn=wye Kv=0.2200 Kva=150.0 %R=0.565
New Transformer.2525786651_2724384388 phases=3 windings=2 Xhl=3.840
~ wdg=1 bus=node_2679009465.1.2.3 conn=delta Kv=13.8 Kva=150.0 %R=0.565
~ wdg=2 bus=node_2679009443.1.2.3.4 conn=wye Kv=0.2200 Kva=150.0 %R=0.565
New Transformer.2316578705_2316578706 phases=3 windings=2 Xhl=3.840
~ wdg=1 bus=node_2585988634.1.2.3 conn=delta Kv=13.8 Kva=150.0 %R=0.565
~ wdg=2 bus=node_2585988615.1.2.3.4 conn=wye Kv=0.2200 Kva=150.0 %R=0.565
New Transformer.326425877_326731674 phases=3 windings=2 Xhl=3.770
~ wdg=1 bus=node_444703134.1.2.3 conn=delta Kv=13.8 Kva=75.0 %R=0.670
~ wdg=2 bus=node_418157694.1.2.3.4 conn=wye Kv=0.2200 Kva=75.0 %R=0.670
New Transformer.326426371_326665906 phases=3 windings=2 Xhl=3.770
~ wdg=1 bus=node_444703014.1.2.3 conn=delta Kv=13.8 Kva=75.0 %R=0.670
~ wdg=2 bus=node_418165279.1.2.3.4 conn=wye Kv=0.2200 Kva=75.0 %R=0.670
New Transformer.325747423_326662990 phases=3 windings=2 Xhl=3.770
~ wdg=1 bus=node_426778325.1.2.3 conn=delta Kv=13.8 Kva=75.0 %R=0.670
~ wdg=2 bus=node_460302596.1.2.3.4 conn=wye Kv=0.2200 Kva=75.0 %R=0.670
New Transformer.326427256_326696040 phases=3 windings=2 Xhl=3.770
~ wdg=1 bus=node_444703054.1.2.3 conn=delta Kv=13.8 Kva=75.0 %R=0.670
~ wdg=2 bus=node_418165294.1.2.3.4 conn=wye Kv=0.2200 Kva=75.0 %R=0.670
New Transformer.325749765_410609508 phases=3 windings=2 Xhl=3.770
~ wdg=1 bus=node_426778780.1.2.3 conn=delta Kv=13.8 Kva=75.0 %R=0.670
~ wdg=2 bus=node_418163911.1.2.3.4 conn=wye Kv=0.2200 Kva=75.0 %R=0.670
New Transformer.324956377_326662950 phases=3 windings=2 Xhl=3.770
~ wdg=1 bus=node_444803698.1.2.3 conn=delta Kv=13.8 Kva=75.0 %R=0.670
~ wdg=2 bus=node_418146632.1.2.3.4 conn=wye Kv=0.2200 Kva=75.0 %R=0.670
New Transformer.326191249_947243521 phases=3 windings=2 Xhl=3.770
~ wdg=1 bus=node_435568805.1.2.3 conn=delta Kv=13.8 Kva=75.0 %R=0.670
~ wdg=2 bus=node_418147136.1.2.3.4 conn=wye Kv=0.2200 Kva=75.0 %R=0.670
New Transformer.326193692_326733489 phases=3 windings=2 Xhl=3.770
~ wdg=1 bus=node_435899003.1.2.3 conn=delta Kv=13.8 Kva=75.0 %R=0.670
~ wdg=2 bus=node_418146227.1.2.3.4 conn=wye Kv=0.2200 Kva=75.0 %R=0.670
New Transformer.2399655124_2399655123 phases=3 windings=2 Xhl=3.770
~ wdg=1 bus=node_428049675.1.2.3 conn=delta Kv=13.8 Kva=75.0 %R=0.670
~ wdg=2 bus=node_419117011.1.2.3.4 conn=wye Kv=0.2200 Kva=75.0 %R=0.670
New Transformer.325540569_326681508 phases=3 windings=2 Xhl=3.770
~ wdg=1 bus=node_444703214.1.2.3 conn=delta Kv=13.8 Kva=75.0 %R=0.670
~ wdg=2 bus=node_418157676.1.2.3.4 conn=wye Kv=0.2200 Kva=75.0 %R=0.670
New Transformer.462468222_1019644652 phases=3 windings=2 Xhl=3.770
~ wdg=1 bus=node_444703039.1.2.3 conn=delta Kv=13.8 Kva=75.0 %R=0.670
~ wdg=2 bus=node_418157655.1.2.3.4 conn=wye Kv=0.2200 Kva=75.0 %R=0.670
New Transformer.1628229234_1628229233 phases=3 windings=2 Xhl=3.770
~ wdg=1 bus=node_1948407143.1.2.3 conn=delta Kv=13.8 Kva=75.0 %R=0.670
~ wdg=2 bus=node_1948406987.1.2.3.4 conn=wye Kv=0.2200 Kva=75.0 %R=0.670
New Transformer.1643305322_1643305323 phases=3 windings=2 Xhl=3.770
~ wdg=1 bus=node_1963238391.1.2.3 conn=delta Kv=13.8 Kva=75.0 %R=0.670
~ wdg=2 bus=node_1963238485.1.2.3.4 conn=wye Kv=0.2200 Kva=75.0 %R=0.670
New Transformer.1645100461_1645100460 phases=3 windings=2 Xhl=3.770
~ wdg=1 bus=node_1965192792.1.2.3 conn=delta Kv=13.8 Kva=75.0 %R=0.670
~ wdg=2 bus=node_1965192880.1.2.3.4 conn=wye Kv=0.2200 Kva=75.0 %R=0.670
New Transformer.1678967330_1678967329 phases=3 windings=2 Xhl=3.770
~ wdg=1 bus=node_2003083269.1.2.3 conn=delta Kv=13.8 Kva=75.0 %R=0.670
~ wdg=2 bus=node_2003083225.1.2.3.4 conn=wye Kv=0.2200 Kva=75.0 %R=0.670
New Transformer.1692858028_1692858027 phases=3 windings=2 Xhl=3.770
~ wdg=1 bus=node_2018713576.1.2.3 conn=delta Kv=13.8 Kva=75.0 %R=0.670
~ wdg=2 bus=node_2018712631.1.2.3.4 conn=wye Kv=0.2200 Kva=75.0 %R=0.670
New Transformer.1445953288_1445953301 phases=3 windings=2 Xhl=3.770
~ wdg=1 bus=node_1742244012.1.2.3 conn=delta Kv=13.8 Kva=75.0 %R=0.670
~ wdg=2 bus=node_1963238484.1.2.3.4 conn=wye Kv=0.2200 Kva=75.0 %R=0.670
New Transformer.1704318795_1704318796 phases=3 windings=2 Xhl=3.770
~ wdg=1 bus=node_2030027350.1.2.3 conn=delta Kv=13.8 Kva=75.0 %R=0.670
~ wdg=2 bus=node_2030027297.1.2.3.4 conn=wye Kv=0.2200 Kva=75.0 %R=0.670
New Transformer.1477870386_1477870385 phases=3 windings=2 Xhl=3.770
~ wdg=1 bus=node_1785247847.1.2.3 conn=delta Kv=13.8 Kva=75.0 %R=0.670
~ wdg=2 bus=node_1785247816.1.2.3.4 conn=wye Kv=0.2200 Kva=75.0 %R=0.670
New Transformer.2018210729_2018210730 phases=3 windings=2 Xhl=3.770
~ wdg=1 bus=node_2335499178.1.2.3 conn=delta Kv=13.8 Kva=75.0 %R=0.670
~ wdg=2 bus=node_2335498802.1.2.3.4 conn=wye Kv=0.2200 Kva=75.0 %R=0.670
New Transformer.2016342222_2016342221 phases=3 windings=2 Xhl=3.770
~ wdg=1 bus=node_2333793378.1.2.3 conn=delta Kv=13.8 Kva=75.0 %R=0.670
~ wdg=2 bus=node_418398111.1.2.3.4 conn=wye Kv=0.2200 Kva=75.0 %R=0.670
New Transformer.324955692_326691946 phases=3 windings=2 Xhl=3.770
~ wdg=1 bus=node_424989723.1.2.3 conn=delta Kv=13.8 Kva=75.0 %R=0.670
~ wdg=2 bus=node_418163917.1.2.3.4 conn=wye Kv=0.2200 Kva=75.0 %R=0.670
New Transformer.2045889239_2045889238 phases=3 windings=2 Xhl=3.770
~ wdg=1 bus=node_2426870139.1.2.3 conn=delta Kv=13.8 Kva=75.0 %R=0.670
~ wdg=2 bus=node_2426870153.1.2.3.4 conn=wye Kv=0.2200 Kva=75.0 %R=0.670
New Transformer.2221419790_2221419789 phases=3 windings=2 Xhl=3.770
~ wdg=1 bus=node_2491387958.1.2.3 conn=delta Kv=13.8 Kva=75.0 %R=0.670
~ wdg=2 bus=node_2491387968.1.2.3.4 conn=wye Kv=0.2200 Kva=75.0 %R=0.670
New Transformer.2341321084_2341321083 phases=1 windings=3 Xhl=3.770 Xht=3.770 Xlt=1.885
~ wdg=1 bus=node_2570754093.3 conn=wye Kv=7.9674 Kva=75.0 %R=0.670
~ wdg=2 bus=node_2570754364.1.4 conn=wye Kv=0.1100 Kva=75.0 %R=0.670
~ wdg=3 bus=node_2570754364.4.2 conn=wye Kv=0.1100 Kva=75.0 %R=0.670
New Transformer.325748170_326731839 phases=3 windings=2 Xhl=3.700
~ wdg=1 bus=node_435733996.1.2.3 conn=delta Kv=13.8 Kva=45.0 %R=0.760
~ wdg=2 bus=node_418140802.1.2.3.4 conn=wye Kv=0.2200 Kva=45.0 %R=0.760
New Transformer.325748216_326662989 phases=3 windings=2 Xhl=3.700
~ wdg=1 bus=node_905609398.1.2.3 conn=delta Kv=13.8 Kva=45.0 %R=0.760
~ wdg=2 bus=node_418165273.1.2.3.4 conn=wye Kv=0.2200 Kva=45.0 %R=0.760
New Transformer.325749094_326733527 phases=3 windings=2 Xhl=3.700
~ wdg=1 bus=node_435736296.1.2.3 conn=delta Kv=13.8 Kva=45.0 %R=0.760
~ wdg=2 bus=node_418146902.1.2.3.4 conn=wye Kv=0.2200 Kva=45.0 %R=0.760
New Transformer.324956391_326712166 phases=3 windings=2 Xhl=3.700
~ wdg=1 bus=node_444703094.1.2.3 conn=delta Kv=13.8 Kva=45.0 %R=0.760
~ wdg=2 bus=node_418162930.1.2.3.4 conn=wye Kv=0.2200 Kva=45.0 %R=0.760
New Transformer.324956401_1918323030 phases=3 windings=2 Xhl=3.700
~ wdg=1 bus=node_424989432.1.2.3 conn=delta Kv=13.8 Kva=45.0 %R=0.760
~ wdg=2 bus=node_418180494.1.2.3.4 conn=wye Kv=0.2200 Kva=45.0 %R=0.760
New Transformer.325927110_326731676 phases=3 windings=2 Xhl=3.700
~ wdg=1 bus=node_444315156.1.2.3 conn=delta Kv=13.8 Kva=45.0 %R=0.760
~ wdg=2 bus=node_418163617.1.2.3.4 conn=wye Kv=0.2200 Kva=45.0 %R=0.760
New Transformer.325750472_326665907 phases=3 windings=2 Xhl=3.700
~ wdg=1 bus=node_444703284.1.2.3 conn=delta Kv=13.8 Kva=45.0 %R=0.760
~ wdg=2 bus=node_488184878.1.2.3.4 conn=wye Kv=0.2200 Kva=45.0 %R=0.760
New Transformer.325750457_326710580 phases=3 windings=2 Xhl=3.700
~ wdg=1 bus=node_424989712.1.2.3 conn=delta Kv=13.8 Kva=45.0 %R=0.760
~ wdg=2 bus=node_418165282.1.2.3.4 conn=wye Kv=0.2200 Kva=45.0 %R=0.760
New Transformer.325751189_1061189326 phases=3 windings=2 Xhl=3.700
~ wdg=1 bus=node_424989467.1.2.3 conn=delta Kv=13.8 Kva=45.0 %R=0.760
~ wdg=2 bus=node_418163623.1.2.3.4 conn=wye Kv=0.2200 Kva=45.0 %R=0.760
New Transformer.325751301_326733498 phases=3 windings=2 Xhl=3.700
~ wdg=1 bus=node_435261384.1.2.3 conn=delta Kv=13.8 Kva=45.0 %R=0.760
~ wdg=2 bus=node_414018928.1.2.3.4 conn=wye Kv=0.2200 Kva=45.0 %R=0.760
New Transformer.326190189_326681511 phases=3 windings=2 Xhl=3.700
~ wdg=1 bus=node_424989398.1.2.3 conn=delta Kv=13.8 Kva=45.0 %R=0.760
~ wdg=2 bus=node_418157685.1.2.3.4 conn=wye Kv=0.2200 Kva=45.0 %R=0.760
New Transformer.326191153_326681509 phases=3 windings=2 Xhl=3.700
~ wdg=1 bus=node_426778895.1.2.3 conn=delta Kv=13.8 Kva=45.0 %R=0.760
~ wdg=2 bus=node_418157652.1.2.3.4 conn=wye Kv=0.2200 Kva=45.0 %R=0.760
New Transformer.326191510_445012986 phases=3 windings=2 Xhl=3.700
~ wdg=1 bus=node_444703234.1.2.3 conn=delta Kv=13.8 Kva=45.0 %R=0.760
~ wdg=2 bus=node_418162753.1.2.3.4 conn=wye Kv=0.2200 Kva=45.0 %R=0.760
New Transformer.326192681_326696044 phases=3 windings=2 Xhl=3.700
~ wdg=1 bus=node_426245212.1.2.3 conn=delta Kv=13.8 Kva=45.0 %R=0.760
~ wdg=2 bus=node_414044366.1.2.3.4 conn=wye Kv=0.2200 Kva=45.0 %R=0.760
New Transformer.326193476_326693799 phases=3 windings=2 Xhl=3.700
~ wdg=1 bus=node_427850565.1.2.3 conn=delta Kv=13.8 Kva=45.0 %R=0.760
~ wdg=2 bus=node_418509552.1.2.3.4 conn=wye Kv=0.2200 Kva=45.0 %R=0.760
New Transformer.325537514_326733337 phases=3 windings=2 Xhl=3.700
~ wdg=1 bus=node_426778390.1.2.3 conn=delta Kv=13.8 Kva=45.0 %R=0.760
~ wdg=2 bus=node_418156137.1.2.3.4 conn=wye Kv=0.2200 Kva=45.0 %R=0.760
New Transformer.325538266_1051476074 phases=3 windings=2 Xhl=3.700
~ wdg=1 bus=node_426778839.1.2.3 conn=delta Kv=13.8 Kva=45.0 %R=0.760
~ wdg=2 bus=node_418157628.1.2.3.4 conn=wye Kv=0.2200 Kva=45.0 %R=0.760
New Transformer.325539312_1811033172 phases=3 windings=2 Xhl=3.700
~ wdg=1 bus=node_426778824.1.2.3 conn=delta Kv=13.8 Kva=45.0 %R=0.760
~ wdg=2 bus=node_418162933.1.2.3.4 conn=wye Kv=0.2200 Kva=45.0 %R=0.760
New Transformer.325540161_326665873 phases=3 windings=2 Xhl=3.700
~ wdg=1 bus=node_435735171.1.2.3 conn=delta Kv=13.8 Kva=45.0 %R=0.760
~ wdg=2 bus=node_414020329.1.2.3.4 conn=wye Kv=0.2200 Kva=45.0 %R=0.760
New Transformer.919607561_919607560 phases=3 windings=2 Xhl=3.700
~ wdg=1 bus=node_1179471656.1.2.3 conn=delta Kv=13.8 Kva=45.0 %R=0.760
~ wdg=2 bus=node_463925088.1.2.3.4 conn=wye Kv=0.2200 Kva=45.0 %R=0.760
New Transformer.1348766871_1348766870 phases=3 windings=2 Xhl=3.700
~ wdg=1 bus=node_905609355.1.2.3 conn=delta Kv=13.8 Kva=45.0 %R=0.760
~ wdg=2 bus=node_462422415.1.2.3.4 conn=wye Kv=0.2200 Kva=45.0 %R=0.760
New Transformer.1596861318_1596861319 phases=3 windings=2 Xhl=3.700
~ wdg=1 bus=node_424989793.1.2.3 conn=delta Kv=13.8 Kva=45.0 %R=0.760
~ wdg=2 bus=node_461087027.1.2.3.4 conn=wye Kv=0.2200 Kva=45.0 %R=0.760
New Transformer.325925368_1870303228 phases=3 windings=2 Xhl=3.700
~ wdg=1 bus=node_444702833.1.2.3 conn=delta Kv=13.8 Kva=45.0 %R=0.760
~ wdg=2 bus=node_418075159.1.2.3.4 conn=wye Kv=0.2200 Kva=45.0 %R=0.760
New Transformer.459045855_459045854 phases=3 windings=2 Xhl=3.700
~ wdg=1 bus=node_728670382.1.2.3 conn=delta Kv=13.8 Kva=45.0 %R=0.760
~ wdg=2 bus=node_1168012141.1.2.3.4 conn=wye Kv=0.2200 Kva=45.0 %R=0.760
New Transformer.325924078_326696041 phases=3 windings=2 Xhl=3.700
~ wdg=1 bus=node_424989732.1.2.3 conn=delta Kv=13.8 Kva=45.0 %R=0.760
~ wdg=2 bus=node_418165285.1.2.3.4 conn=wye Kv=0.2200 Kva=45.0 %R=0.760
New Transformer.325925435_326429859 phases=3 windings=2 Xhl=3.700
~ wdg=1 bus=node_727124507.1.2.3 conn=delta Kv=13.8 Kva=45.0 %R=0.760
~ wdg=2 bus=node_727124495.1.2.3.4 conn=wye Kv=0.2200 Kva=45.0 %R=0.760
New Transformer.325925188_326710579 phases=3 windings=2 Xhl=3.700
~ wdg=1 bus=node_426778835.1.2.3 conn=delta Kv=13.8 Kva=45.0 %R=0.760
~ wdg=2 bus=node_418157670.1.2.3.4 conn=wye Kv=0.2200 Kva=45.0 %R=0.760
New Transformer.325924418_326662987 phases=3 windings=2 Xhl=3.700
~ wdg=1 bus=node_424989742.1.2.3 conn=delta Kv=13.8 Kva=45.0 %R=0.760
~ wdg=2 bus=node_418156278.1.2.3.4 conn=wye Kv=0.2200 Kva=45.0 %R=0.760
New Transformer.2421884743_2421884742 phases=3 windings=2 Xhl=3.700
~ wdg=1 bus=node_2500792784.1.2.3 conn=delta Kv=13.8 Kva=45.0 %R=0.760
~ wdg=2 bus=node_2500792795.1.2.3.4 conn=wye Kv=0.2200 Kva=45.0 %R=0.760
New Transformer.2604834951_2604834950 phases=1 windings=3 Xhl=2.139 Xht=2.139 Xlt=1.069
~ wdg=1 bus=node_2758032071.3 conn=wye Kv=7.9674 Kva=37.5 %R=0.646
~ wdg=2 bus=node_2758032015.1.4 conn=wye Kv=0.1200 Kva=37.5 %R=0.646
~ wdg=3 bus=node_2758032015.4.2 conn=wye Kv=0.1200 Kva=37.5 %R=0.646
New Transformer.2359317013_2359317012 phases=1 windings=3 Xhl=2.139 Xht=2.139 Xlt=1.069
~ wdg=1 bus=node_2498116941.3 conn=wye Kv=7.9674 Kva=37.5 %R=0.646
~ wdg=2 bus=node_2498116951.1.4 conn=wye Kv=0.1200 Kva=37.5 %R=0.646
~ wdg=3 bus=node_2498116951.4.2 conn=wye Kv=0.1200 Kva=37.5 %R=0.646
New Transformer.325924429_326710587 phases=1 windings=3 Xhl=2.139 Xht=2.139 Xlt=1.069
~ wdg=1 bus=node_442582680.3 conn=wye Kv=7.9674 Kva=37.5 %R=0.646
~ wdg=2 bus=node_418163593.1.4 conn=wye Kv=0.1200 Kva=37.5 %R=0.646
~ wdg=3 bus=node_418163593.4.2 conn=wye Kv=0.1200 Kva=37.5 %R=0.646
New Transformer.325925181_326711600 phases=1 windings=3 Xhl=2.139 Xht=2.139 Xlt=1.069
~ wdg=1 bus=node_435427578.2 conn=wye Kv=7.9674 Kva=37.5 %R=0.646
~ wdg=2 bus=node_419616822.1.4 conn=wye Kv=0.1200 Kva=37.5 %R=0.646
~ wdg=3 bus=node_419616822.4.2 conn=wye Kv=0.1200 Kva=37.5 %R=0.646
New Transformer.325925049_326679340 phases=1 windings=3 Xhl=2.139 Xht=2.139 Xlt=1.069
~ wdg=1 bus=node_442583005.3 conn=wye Kv=7.9674 Kva=37.5 %R=0.646
~ wdg=2 bus=node_414066982.1.4 conn=wye Kv=0.1200 Kva=37.5 %R=0.646
~ wdg=3 bus=node_414066982.4.2 conn=wye Kv=0.1200 Kva=37.5 %R=0.646
New Transformer.325927011_326734475 phases=1 windings=3 Xhl=2.139 Xht=2.139 Xlt=1.069
~ wdg=1 bus=node_435265283.3 conn=wye Kv=7.9674 Kva=37.5 %R=0.646
~ wdg=2 bus=node_423670433.1.4 conn=wye Kv=0.1200 Kva=37.5 %R=0.646
~ wdg=3 bus=node_423670433.4.2 conn=wye Kv=0.1200 Kva=37.5 %R=0.646
New Transformer.325925827_326733505 phases=1 windings=3 Xhl=2.139 Xht=2.139 Xlt=1.069
~ wdg=1 bus=node_435427993.1 conn=wye Kv=7.9674 Kva=37.5 %R=0.646
~ wdg=2 bus=node_418155768.1.4 conn=wye Kv=0.1200 Kva=37.5 %R=0.646
~ wdg=3 bus=node_418155768.4.2 conn=wye Kv=0.1200 Kva=37.5 %R=0.646
New Transformer.325924859_326730559 phases=1 windings=3 Xhl=2.139 Xht=2.139 Xlt=1.069
~ wdg=1 bus=node_435737661.2 conn=wye Kv=7.9674 Kva=37.5 %R=0.646
~ wdg=2 bus=node_419868632.1.4 conn=wye Kv=0.1200 Kva=37.5 %R=0.646
~ wdg=3 bus=node_419868632.4.2 conn=wye Kv=0.1200 Kva=37.5 %R=0.646
New Transformer.325925127_478901232 phases=1 windings=3 Xhl=2.139 Xht=2.139 Xlt=1.069
~ wdg=1 bus=node_434939193.2 conn=wye Kv=7.9674 Kva=37.5 %R=0.646
~ wdg=2 bus=node_419745548.1.4 conn=wye Kv=0.1200 Kva=37.5 %R=0.646
~ wdg=3 bus=node_419745548.4.2 conn=wye Kv=0.1200 Kva=37.5 %R=0.646
New Transformer.325923846_1515528654 phases=1 windings=3 Xhl=2.139 Xht=2.139 Xlt=1.069
~ wdg=1 bus=node_426592983.3 conn=wye Kv=7.9674 Kva=37.5 %R=0.646
~ wdg=2 bus=node_423593378.1.4 conn=wye Kv=0.1200 Kva=37.5 %R=0.646
~ wdg=3 bus=node_423593378.4.2 conn=wye Kv=0.1200 Kva=37.5 %R=0.646
New Transformer.1590785302_1590785301 phases=1 windings=3 Xhl=2.139 Xht=2.139 Xlt=1.069
~ wdg=1 bus=node_434938698.3 conn=wye Kv=7.9674 Kva=37.5 %R=0.646
~ wdg=2 bus=node_418519146.1.4 conn=wye Kv=0.1200 Kva=37.5 %R=0.646
~ wdg=3 bus=node_418519146.4.2 conn=wye Kv=0.1200 Kva=37.5 %R=0.646
New Transformer.577697712_2008711730 phases=1 windings=3 Xhl=2.139 Xht=2.139 Xlt=1.069
~ wdg=1 bus=node_846124324.1 conn=wye Kv=7.9674 Kva=37.5 %R=0.646
~ wdg=2 bus=node_846124407.1.4 conn=wye Kv=0.1200 Kva=37.5 %R=0.646
~ wdg=3 bus=node_846124407.4.2 conn=wye Kv=0.1200 Kva=37.5 %R=0.646
New Transformer.324955590_2014165246 phases=1 windings=3 Xhl=2.139 Xht=2.139 Xlt=1.069
~ wdg=1 bus=node_438205548.2 conn=wye Kv=7.9674 Kva=37.5 %R=0.646
~ wdg=2 bus=node_453144303.1.4 conn=wye Kv=0.1200 Kva=37.5 %R=0.646
~ wdg=3 bus=node_453144303.4.2 conn=wye Kv=0.1200 Kva=37.5 %R=0.646
New Transformer.324955537_326429812 phases=1 windings=3 Xhl=2.139 Xht=2.139 Xlt=1.069
~ wdg=1 bus=node_435261599.3 conn=wye Kv=7.9674 Kva=37.5 %R=0.646
~ wdg=2 bus=node_419926374.1.4 conn=wye Kv=0.1200 Kva=37.5 %R=0.646
~ wdg=3 bus=node_419926374.4.2 conn=wye Kv=0.1200 Kva=37.5 %R=0.646
New Transformer.324954760_326429366 phases=1 windings=3 Xhl=2.139 Xht=2.139 Xlt=1.069
~ wdg=1 bus=node_435566751.2 conn=wye Kv=7.9674 Kva=37.5 %R=0.646
~ wdg=2 bus=node_412196937.1.4 conn=wye Kv=0.1200 Kva=37.5 %R=0.646
~ wdg=3 bus=node_412196937.4.2 conn=wye Kv=0.1200 Kva=37.5 %R=0.646
New Transformer.324954687_326712540 phases=1 windings=3 Xhl=2.139 Xht=2.139 Xlt=1.069
~ wdg=1 bus=node_443250314.1 conn=wye Kv=7.9674 Kva=37.5 %R=0.646
~ wdg=2 bus=node_418604341.1.4 conn=wye Kv=0.1200 Kva=37.5 %R=0.646
~ wdg=3 bus=node_418604341.4.2 conn=wye Kv=0.1200 Kva=37.5 %R=0.646
New Transformer.1344958221_1344958220 phases=1 windings=3 Xhl=2.139 Xht=2.139 Xlt=1.069
~ wdg=1 bus=node_426594313.3 conn=wye Kv=7.9674 Kva=37.5 %R=0.646
~ wdg=2 bus=node_418493040.1.4 conn=wye Kv=0.1200 Kva=37.5 %R=0.646
~ wdg=3 bus=node_418493040.4.2 conn=wye Kv=0.1200 Kva=37.5 %R=0.646
New Transformer.1314947327_1314947328 phases=1 windings=3 Xhl=2.139 Xht=2.139 Xlt=1.069
~ wdg=1 bus=node_433166065.3 conn=wye Kv=7.9674 Kva=37.5 %R=0.646
~ wdg=2 bus=node_418163098.1.4 conn=wye Kv=0.1200 Kva=37.5 %R=0.646
~ wdg=3 bus=node_418163098.4.2 conn=wye Kv=0.1200 Kva=37.5 %R=0.646
New Transformer.1855111296_1855111295 phases=1 windings=3 Xhl=2.139 Xht=2.139 Xlt=1.069
~ wdg=1 bus=node_2176010701.2 conn=wye Kv=7.9674 Kva=37.5 %R=0.646
~ wdg=2 bus=node_2176010849.1.4 conn=wye Kv=0.1200 Kva=37.5 %R=0.646
~ wdg=3 bus=node_2176010849.4.2 conn=wye Kv=0.1200 Kva=37.5 %R=0.646
New Transformer.325540809_1367634814 phases=1 windings=3 Xhl=2.139 Xht=2.139 Xlt=1.069
~ wdg=1 bus=node_426779230.3 conn=wye Kv=7.9674 Kva=37.5 %R=0.646
~ wdg=2 bus=node_418415968.1.4 conn=wye Kv=0.1200 Kva=37.5 %R=0.646
~ wdg=3 bus=node_418415968.4.2 conn=wye Kv=0.1200 Kva=37.5 %R=0.646
New Transformer.325540924_326711078 phases=1 windings=3 Xhl=2.139 Xht=2.139 Xlt=1.069
~ wdg=1 bus=node_426591768.1 conn=wye Kv=7.9674 Kva=37.5 %R=0.646
~ wdg=2 bus=node_418354078.1.4 conn=wye Kv=0.1200 Kva=37.5 %R=0.646
~ wdg=3 bus=node_418354078.4.2 conn=wye Kv=0.1200 Kva=37.5 %R=0.646
New Transformer.325541017_326693597 phases=1 windings=3 Xhl=2.139 Xht=2.139 Xlt=1.069
~ wdg=1 bus=node_442582910.1 conn=wye Kv=7.9674 Kva=37.5 %R=0.646
~ wdg=2 bus=node_416173570.1.4 conn=wye Kv=0.1200 Kva=37.5 %R=0.646
~ wdg=3 bus=node_416173570.4.2 conn=wye Kv=0.1200 Kva=37.5 %R=0.646
New Transformer.325540011_2077978244 phases=1 windings=3 Xhl=2.139 Xht=2.139 Xlt=1.069
~ wdg=1 bus=node_444701554.2 conn=wye Kv=7.9674 Kva=37.5 %R=0.646
~ wdg=2 bus=node_414020530.1.4 conn=wye Kv=0.1200 Kva=37.5 %R=0.646
~ wdg=3 bus=node_414020530.4.2 conn=wye Kv=0.1200 Kva=37.5 %R=0.646
New Transformer.325540528_1599596586 phases=1 windings=3 Xhl=2.139 Xht=2.139 Xlt=1.069
~ wdg=1 bus=node_442583934.1 conn=wye Kv=7.9674 Kva=37.5 %R=0.646
~ wdg=2 bus=node_2779176086.1.4 conn=wye Kv=0.1200 Kva=37.5 %R=0.646
~ wdg=3 bus=node_2779176086.4.2 conn=wye Kv=0.1200 Kva=37.5 %R=0.646
New Transformer.325539931_326694718 phases=1 windings=3 Xhl=2.139 Xht=2.139 Xlt=1.069
~ wdg=1 bus=node_435737271.2 conn=wye Kv=7.9674 Kva=37.5 %R=0.646
~ wdg=2 bus=node_416128720.1.4 conn=wye Kv=0.1200 Kva=37.5 %R=0.646
~ wdg=3 bus=node_416128720.4.2 conn=wye Kv=0.1200 Kva=37.5 %R=0.646
New Transformer.325539427_1376630636 phases=1 windings=3 Xhl=2.139 Xht=2.139 Xlt=1.069
~ wdg=1 bus=node_2432830485.1 conn=wye Kv=7.9674 Kva=37.5 %R=0.646
~ wdg=2 bus=node_2432830499.1.4 conn=wye Kv=0.1200 Kva=37.5 %R=0.646
~ wdg=3 bus=node_2432830499.4.2 conn=wye Kv=0.1200 Kva=37.5 %R=0.646
New Transformer.325539097_326712838 phases=1 windings=3 Xhl=2.139 Xht=2.139 Xlt=1.069
~ wdg=1 bus=node_442354758.3 conn=wye Kv=7.9674 Kva=37.5 %R=0.646
~ wdg=2 bus=node_419644941.1.4 conn=wye Kv=0.1200 Kva=37.5 %R=0.646
~ wdg=3 bus=node_419644941.4.2 conn=wye Kv=0.1200 Kva=37.5 %R=0.646
New Transformer.2527774779_2527774792 phases=1 windings=3 Xhl=2.139 Xht=2.139 Xlt=1.069
~ wdg=1 bus=node_2629443904.2 conn=wye Kv=7.9674 Kva=37.5 %R=0.646
~ wdg=2 bus=node_2629443883.1.4 conn=wye Kv=0.1200 Kva=37.5 %R=0.646
~ wdg=3 bus=node_2629443883.4.2 conn=wye Kv=0.1200 Kva=37.5 %R=0.646
New Transformer.325537813_326429868 phases=1 windings=3 Xhl=2.139 Xht=2.139 Xlt=1.069
~ wdg=1 bus=node_442583340.2 conn=wye Kv=7.9674 Kva=37.5 %R=0.646
~ wdg=2 bus=node_419928210.1.4 conn=wye Kv=0.1200 Kva=37.5 %R=0.646
~ wdg=3 bus=node_419928210.4.2 conn=wye Kv=0.1200 Kva=37.5 %R=0.646
New Transformer.325538228_326680366 phases=1 windings=3 Xhl=2.139 Xht=2.139 Xlt=1.069
~ wdg=1 bus=node_442583884.3 conn=wye Kv=7.9674 Kva=37.5 %R=0.646
~ wdg=2 bus=node_419994833.1.4 conn=wye Kv=0.1200 Kva=37.5 %R=0.646
~ wdg=3 bus=node_419994833.4.2 conn=wye Kv=0.1200 Kva=37.5 %R=0.646
New Transformer.325537934_2016462413 phases=1 windings=3 Xhl=2.139 Xht=2.139 Xlt=1.069
~ wdg=1 bus=node_442583120.1 conn=wye Kv=7.9674 Kva=37.5 %R=0.646
~ wdg=2 bus=node_414538030.1.4 conn=wye Kv=0.1200 Kva=37.5 %R=0.646
~ wdg=3 bus=node_414538030.4.2 conn=wye Kv=0.1200 Kva=37.5 %R=0.646
New Transformer.325538238_1567932630 phases=1 windings=3 Xhl=2.139 Xht=2.139 Xlt=1.069
~ wdg=1 bus=node_442583715.2 conn=wye Kv=7.9674 Kva=37.5 %R=0.646
~ wdg=2 bus=node_419862574.1.4 conn=wye Kv=0.1200 Kva=37.5 %R=0.646
~ wdg=3 bus=node_419862574.4.2 conn=wye Kv=0.1200 Kva=37.5 %R=0.646
New Transformer.325537349_326664667 phases=1 windings=3 Xhl=2.139 Xht=2.139 Xlt=1.069
~ wdg=1 bus=node_435734271.1 conn=wye Kv=7.9674 Kva=37.5 %R=0.646
~ wdg=2 bus=node_420061084.1.4 conn=wye Kv=0.1200 Kva=37.5 %R=0.646
~ wdg=3 bus=node_420061084.4.2 conn=wye Kv=0.1200 Kva=37.5 %R=0.646
New Transformer.326193129_326679749 phases=1 windings=3 Xhl=2.139 Xht=2.139 Xlt=1.069
~ wdg=1 bus=node_444315206.2 conn=wye Kv=7.9674 Kva=37.5 %R=0.646
~ wdg=2 bus=node_419415079.1.4 conn=wye Kv=0.1200 Kva=37.5 %R=0.646
~ wdg=3 bus=node_419415079.4.2 conn=wye Kv=0.1200 Kva=37.5 %R=0.646
New Transformer.326192729_326664738 phases=1 windings=3 Xhl=2.139 Xht=2.139 Xlt=1.069
~ wdg=1 bus=node_435566506.3 conn=wye Kv=7.9674 Kva=37.5 %R=0.646
~ wdg=2 bus=node_420144774.1.4 conn=wye Kv=0.1200 Kva=37.5 %R=0.646
~ wdg=3 bus=node_420144774.4.2 conn=wye Kv=0.1200 Kva=37.5 %R=0.646
New Transformer.326192207_326731678 phases=1 windings=3 Xhl=2.139 Xht=2.139 Xlt=1.069
~ wdg=1 bus=node_442584198.3 conn=wye Kv=7.9674 Kva=37.5 %R=0.646
~ wdg=2 bus=node_414067231.1.4 conn=wye Kv=0.1200 Kva=37.5 %R=0.646
~ wdg=3 bus=node_414067231.4.2 conn=wye Kv=0.1200 Kva=37.5 %R=0.646
New Transformer.326192136_326733532 phases=1 windings=3 Xhl=2.139 Xht=2.139 Xlt=1.069
~ wdg=1 bus=node_444701345.3 conn=wye Kv=7.9674 Kva=37.5 %R=0.646
~ wdg=2 bus=node_418156296.1.4 conn=wye Kv=0.1200 Kva=37.5 %R=0.646
~ wdg=3 bus=node_418156296.4.2 conn=wye Kv=0.1200 Kva=37.5 %R=0.646
New Transformer.326191496_326710550 phases=1 windings=3 Xhl=2.139 Xht=2.139 Xlt=1.069
~ wdg=1 bus=node_432932756.1 conn=wye Kv=7.9674 Kva=37.5 %R=0.646
~ wdg=2 bus=node_413997326.1.4 conn=wye Kv=0.1200 Kva=37.5 %R=0.646
~ wdg=3 bus=node_413997326.4.2 conn=wye Kv=0.1200 Kva=37.5 %R=0.646
New Transformer.326190266_326756659 phases=1 windings=3 Xhl=2.139 Xht=2.139 Xlt=1.069
~ wdg=1 bus=node_444315316.3 conn=wye Kv=7.9674 Kva=37.5 %R=0.646
~ wdg=2 bus=node_415614841.1.4 conn=wye Kv=0.1200 Kva=37.5 %R=0.646
~ wdg=3 bus=node_415614841.4.2 conn=wye Kv=0.1200 Kva=37.5 %R=0.646
New Transformer.326189872_326710549 phases=1 windings=3 Xhl=2.139 Xht=2.139 Xlt=1.069
~ wdg=1 bus=node_432932696.1 conn=wye Kv=7.9674 Kva=37.5 %R=0.646
~ wdg=2 bus=node_413997125.1.4 conn=wye Kv=0.1200 Kva=37.5 %R=0.646
~ wdg=3 bus=node_413997125.4.2 conn=wye Kv=0.1200 Kva=37.5 %R=0.646
New Transformer.325751359_697560300 phases=1 windings=3 Xhl=2.139 Xht=2.139 Xlt=1.069
~ wdg=1 bus=node_435264668.3 conn=wye Kv=7.9674 Kva=37.5 %R=0.646
~ wdg=2 bus=node_415745725.1.4 conn=wye Kv=0.1200 Kva=37.5 %R=0.646
~ wdg=3 bus=node_415745725.4.2 conn=wye Kv=0.1200 Kva=37.5 %R=0.646
New Transformer.325751194_739005988 phases=1 windings=3 Xhl=2.139 Xht=2.139 Xlt=1.069
~ wdg=1 bus=node_444703339.2 conn=wye Kv=7.9674 Kva=37.5 %R=0.646
~ wdg=2 bus=node_418156776.1.4 conn=wye Kv=0.1200 Kva=37.5 %R=0.646
~ wdg=3 bus=node_418156776.4.2 conn=wye Kv=0.1200 Kva=37.5 %R=0.646
New Transformer.325751014_1116603184 phases=1 windings=3 Xhl=2.139 Xht=2.139 Xlt=1.069
~ wdg=1 bus=node_426246597.1 conn=wye Kv=7.9674 Kva=37.5 %R=0.646
~ wdg=2 bus=node_423634297.1.4 conn=wye Kv=0.1200 Kva=37.5 %R=0.646
~ wdg=3 bus=node_423634297.4.2 conn=wye Kv=0.1200 Kva=37.5 %R=0.646
New Transformer.325750863_1829231118 phases=1 windings=3 Xhl=2.139 Xht=2.139 Xlt=1.069
~ wdg=1 bus=node_444701066.2 conn=wye Kv=7.9674 Kva=37.5 %R=0.646
~ wdg=2 bus=node_415709468.1.4 conn=wye Kv=0.1200 Kva=37.5 %R=0.646
~ wdg=3 bus=node_415709468.4.2 conn=wye Kv=0.1200 Kva=37.5 %R=0.646
New Transformer.325927321_1872291350 phases=1 windings=3 Xhl=2.139 Xht=2.139 Xlt=1.069
~ wdg=1 bus=node_435570144.2 conn=wye Kv=7.9674 Kva=37.5 %R=0.646
~ wdg=2 bus=node_416010927.1.4 conn=wye Kv=0.1200 Kva=37.5 %R=0.646
~ wdg=3 bus=node_416010927.4.2 conn=wye Kv=0.1200 Kva=37.5 %R=0.646
New Transformer.325927330_326682296 phases=1 windings=3 Xhl=2.139 Xht=2.139 Xlt=1.069
~ wdg=1 bus=node_442354798.1 conn=wye Kv=7.9674 Kva=37.5 %R=0.646
~ wdg=2 bus=node_418417195.1.4 conn=wye Kv=0.1200 Kva=37.5 %R=0.646
~ wdg=3 bus=node_418417195.4.2 conn=wye Kv=0.1200 Kva=37.5 %R=0.646
New Transformer.325927289_326696011 phases=1 windings=3 Xhl=2.139 Xht=2.139 Xlt=1.069
~ wdg=1 bus=node_442354753.1 conn=wye Kv=7.9674 Kva=37.5 %R=0.646
~ wdg=2 bus=node_414020326.1.4 conn=wye Kv=0.1200 Kva=37.5 %R=0.646
~ wdg=3 bus=node_414020326.4.2 conn=wye Kv=0.1200 Kva=37.5 %R=0.646
New Transformer.325750238_326694123 phases=1 windings=3 Xhl=2.139 Xht=2.139 Xlt=1.069
~ wdg=1 bus=node_434353420.2 conn=wye Kv=7.9674 Kva=37.5 %R=0.646
~ wdg=2 bus=node_419446511.1.4 conn=wye Kv=0.1200 Kva=37.5 %R=0.646
~ wdg=3 bus=node_419446511.4.2 conn=wye Kv=0.1200 Kva=37.5 %R=0.646
New Transformer.325750192_411605727 phases=1 windings=3 Xhl=2.139 Xht=2.139 Xlt=1.069
~ wdg=1 bus=node_435736346.3 conn=wye Kv=7.9674 Kva=37.5 %R=0.646
~ wdg=2 bus=node_418165312.1.4 conn=wye Kv=0.1200 Kva=37.5 %R=0.646
~ wdg=3 bus=node_418165312.4.2 conn=wye Kv=0.1200 Kva=37.5 %R=0.646
New Transformer.324956243_1457611183 phases=1 windings=3 Xhl=2.139 Xht=2.139 Xlt=1.069
~ wdg=1 bus=node_442584128.3 conn=wye Kv=7.9674 Kva=37.5 %R=0.646
~ wdg=2 bus=node_418166482.1.4 conn=wye Kv=0.1200 Kva=37.5 %R=0.646
~ wdg=3 bus=node_418166482.4.2 conn=wye Kv=0.1200 Kva=37.5 %R=0.646
New Transformer.325749672_326665902 phases=1 windings=3 Xhl=2.139 Xht=2.139 Xlt=1.069
~ wdg=1 bus=node_442582980.3 conn=wye Kv=7.9674 Kva=37.5 %R=0.646
~ wdg=2 bus=node_414042926.1.4 conn=wye Kv=0.1200 Kva=37.5 %R=0.646
~ wdg=3 bus=node_414042926.4.2 conn=wye Kv=0.1200 Kva=37.5 %R=0.646
New Transformer.325749416_326664610 phases=1 windings=3 Xhl=2.139 Xht=2.139 Xlt=1.069
~ wdg=1 bus=node_435082025.3 conn=wye Kv=7.9674 Kva=37.5 %R=0.646
~ wdg=2 bus=node_416010396.1.4 conn=wye Kv=0.1200 Kva=37.5 %R=0.646
~ wdg=3 bus=node_416010396.4.2 conn=wye Kv=0.1200 Kva=37.5 %R=0.646
New Transformer.326428491_1842551140 phases=1 windings=3 Xhl=2.139 Xht=2.139 Xlt=1.069
~ wdg=1 bus=node_435569750.1 conn=wye Kv=7.9674 Kva=37.5 %R=0.646
~ wdg=2 bus=node_414614878.1.4 conn=wye Kv=0.1200 Kva=37.5 %R=0.646
~ wdg=3 bus=node_414614878.4.2 conn=wye Kv=0.1200 Kva=37.5 %R=0.646
New Transformer.326428421_2606862064 phases=1 windings=3 Xhl=2.139 Xht=2.139 Xlt=1.069
~ wdg=1 bus=node_426417258.1 conn=wye Kv=7.9674 Kva=37.5 %R=0.646
~ wdg=2 bus=node_423590969.1.4 conn=wye Kv=0.1200 Kva=37.5 %R=0.646
~ wdg=3 bus=node_423590969.4.2 conn=wye Kv=0.1200 Kva=37.5 %R=0.646
New Transformer.326428513_326664612 phases=1 windings=3 Xhl=2.139 Xht=2.139 Xlt=1.069
~ wdg=1 bus=node_435265138.3 conn=wye Kv=7.9674 Kva=37.5 %R=0.646
~ wdg=2 bus=node_423699245.1.4 conn=wye Kv=0.1200 Kva=37.5 %R=0.646
~ wdg=3 bus=node_423699245.4.2 conn=wye Kv=0.1200 Kva=37.5 %R=0.646
New Transformer.325749292_1681998446 phases=1 windings=3 Xhl=2.139 Xht=2.139 Xlt=1.069
~ wdg=1 bus=node_438205226.2 conn=wye Kv=7.9674 Kva=37.5 %R=0.646
~ wdg=2 bus=node_419084895.1.4 conn=wye Kv=0.1200 Kva=37.5 %R=0.646
~ wdg=3 bus=node_419084895.4.2 conn=wye Kv=0.1200 Kva=37.5 %R=0.646
New Transformer.326428232_326681675 phases=1 windings=3 Xhl=2.139 Xht=2.139 Xlt=1.069
~ wdg=1 bus=node_435898948.1 conn=wye Kv=7.9674 Kva=37.5 %R=0.646
~ wdg=2 bus=node_690488333.1.4 conn=wye Kv=0.1200 Kva=37.5 %R=0.646
~ wdg=3 bus=node_690488333.4.2 conn=wye Kv=0.1200 Kva=37.5 %R=0.646
New Transformer.326427924_326691905 phases=1 windings=3 Xhl=2.139 Xht=2.139 Xlt=1.069
~ wdg=1 bus=node_444701031.1 conn=wye Kv=7.9674 Kva=37.5 %R=0.646
~ wdg=2 bus=node_414018937.1.4 conn=wye Kv=0.1200 Kva=37.5 %R=0.646
~ wdg=3 bus=node_414018937.4.2 conn=wye Kv=0.1200 Kva=37.5 %R=0.646
New Transformer.326428088_536445126 phases=1 windings=3 Xhl=2.139 Xht=2.139 Xlt=1.069
~ wdg=1 bus=node_426778565.3 conn=wye Kv=7.9674 Kva=37.5 %R=0.646
~ wdg=2 bus=node_415267677.1.4 conn=wye Kv=0.1200 Kva=37.5 %R=0.646
~ wdg=3 bus=node_415267677.4.2 conn=wye Kv=0.1200 Kva=37.5 %R=0.646
New Transformer.326428094_1588518066 phases=1 windings=3 Xhl=2.139 Xht=2.139 Xlt=1.069
~ wdg=1 bus=node_435736396.3 conn=wye Kv=7.9674 Kva=37.5 %R=0.646
~ wdg=2 bus=node_418165297.1.4 conn=wye Kv=0.1200 Kva=37.5 %R=0.646
~ wdg=3 bus=node_418165297.4.2 conn=wye Kv=0.1200 Kva=37.5 %R=0.646
New Transformer.325748651_2597767174 phases=1 windings=3 Xhl=2.139 Xht=2.139 Xlt=1.069
~ wdg=1 bus=node_426419913.1 conn=wye Kv=7.9674 Kva=37.5 %R=0.646
~ wdg=2 bus=node_423473334.1.4 conn=wye Kv=0.1200 Kva=37.5 %R=0.646
~ wdg=3 bus=node_423473334.4.2 conn=wye Kv=0.1200 Kva=37.5 %R=0.646
New Transformer.326427763_326664641 phases=1 windings=3 Xhl=2.139 Xht=2.139 Xlt=1.069
~ wdg=1 bus=node_435569515.3 conn=wye Kv=7.9674 Kva=37.5 %R=0.646
~ wdg=2 bus=node_416130250.1.4 conn=wye Kv=0.1200 Kva=37.5 %R=0.646
~ wdg=3 bus=node_416130250.4.2 conn=wye Kv=0.1200 Kva=37.5 %R=0.646
New Transformer.326427213_2653082926 phases=1 windings=3 Xhl=2.139 Xht=2.139 Xlt=1.069
~ wdg=1 bus=node_442583185.1 conn=wye Kv=7.9674 Kva=37.5 %R=0.646
~ wdg=2 bus=node_414590742.1.4 conn=wye Kv=0.1200 Kva=37.5 %R=0.646
~ wdg=3 bus=node_414590742.4.2 conn=wye Kv=0.1200 Kva=37.5 %R=0.646
New Transformer.326427219_326665896 phases=1 windings=3 Xhl=2.139 Xht=2.139 Xlt=1.069
~ wdg=1 bus=node_435262109.1 conn=wye Kv=7.9674 Kva=37.5 %R=0.646
~ wdg=2 bus=node_414044513.1.4 conn=wye Kv=0.1200 Kva=37.5 %R=0.646
~ wdg=3 bus=node_414044513.4.2 conn=wye Kv=0.1200 Kva=37.5 %R=0.646
New Transformer.326427162_2077845130 phases=1 windings=3 Xhl=2.139 Xht=2.139 Xlt=1.069
~ wdg=1 bus=node_442354808.2 conn=wye Kv=7.9674 Kva=37.5 %R=0.646
~ wdg=2 bus=node_416054521.1.4 conn=wye Kv=0.1200 Kva=37.5 %R=0.646
~ wdg=3 bus=node_416054521.4.2 conn=wye Kv=0.1200 Kva=37.5 %R=0.646
New Transformer.325747520_326691934 phases=1 windings=3 Xhl=2.139 Xht=2.139 Xlt=1.069
~ wdg=1 bus=node_444703429.1 conn=wye Kv=7.9674 Kva=37.5 %R=0.646
~ wdg=2 bus=node_418147154.1.4 conn=wye Kv=0.1200 Kva=37.5 %R=0.646
~ wdg=3 bus=node_418147154.4.2 conn=wye Kv=0.1200 Kva=37.5 %R=0.646
New Transformer.326426587_532919752 phases=1 windings=3 Xhl=2.139 Xht=2.139 Xlt=1.069
~ wdg=1 bus=node_444701270.3 conn=wye Kv=7.9674 Kva=37.5 %R=0.646
~ wdg=2 bus=node_413993483.1.4 conn=wye Kv=0.1200 Kva=37.5 %R=0.646
~ wdg=3 bus=node_413993483.4.2 conn=wye Kv=0.1200 Kva=37.5 %R=0.646
New Transformer.326425902_2559576110 phases=1 windings=3 Xhl=2.139 Xht=2.139 Xlt=1.069
~ wdg=1 bus=node_435262754.1 conn=wye Kv=7.9674 Kva=37.5 %R=0.646
~ wdg=2 bus=node_420145890.1.4 conn=wye Kv=0.1200 Kva=37.5 %R=0.646
~ wdg=3 bus=node_420145890.4.2 conn=wye Kv=0.1200 Kva=37.5 %R=0.646
New Transformer.325747164_1411248864 phases=1 windings=3 Xhl=2.139 Xht=2.139 Xlt=1.069
~ wdg=1 bus=node_443250534.2 conn=wye Kv=7.9674 Kva=37.5 %R=0.646
~ wdg=2 bus=node_419862016.1.4 conn=wye Kv=0.1200 Kva=37.5 %R=0.646
~ wdg=3 bus=node_419862016.4.2 conn=wye Kv=0.1200 Kva=37.5 %R=0.646
New Transformer.326425621_326710577 phases=3 windings=2 Xhl=3.640
~ wdg=1 bus=node_426778080.1.2.3 conn=delta Kv=13.8 Kva=30.0 %R=0.835
~ wdg=2 bus=node_418157658.1.2.3.4 conn=wye Kv=0.2200 Kva=30.0 %R=0.835
New Transformer.326425809_326680563 phases=3 windings=2 Xhl=3.640
~ wdg=1 bus=node_434763712.1.2.3 conn=delta Kv=13.8 Kva=30.0 %R=0.835
~ wdg=2 bus=node_423711071.1.2.3.4 conn=wye Kv=0.2200 Kva=30.0 %R=0.835
New Transformer.326426438_326733336 phases=3 windings=2 Xhl=3.640
~ wdg=1 bus=node_426776980.1.2.3 conn=delta Kv=13.8 Kva=30.0 %R=0.835
~ wdg=2 bus=node_418090479.1.2.3.4 conn=wye Kv=0.2200 Kva=30.0 %R=0.835
New Transformer.326426667_326696042 phases=3 windings=2 Xhl=3.640
~ wdg=1 bus=node_426246101.1.2.3 conn=delta Kv=13.8 Kva=30.0 %R=0.835
~ wdg=2 bus=node_414068632.1.2.3.4 conn=wye Kv=0.2200 Kva=30.0 %R=0.835
New Transformer.326425966_326681507 phases=3 windings=2 Xhl=3.640
~ wdg=1 bus=node_426778050.1.2.3 conn=delta Kv=13.8 Kva=30.0 %R=0.835
~ wdg=2 bus=node_418157622.1.2.3.4 conn=wye Kv=0.2200 Kva=30.0 %R=0.835
New Transformer.326427609_326662988 phases=3 windings=2 Xhl=3.640
~ wdg=1 bus=node_444703104.1.2.3 conn=delta Kv=13.8 Kva=30.0 %R=0.835
~ wdg=2 bus=node_418156377.1.2.3.4 conn=wye Kv=0.2200 Kva=30.0 %R=0.835
New Transformer.325748383_1031028478 phases=3 windings=2 Xhl=3.640
~ wdg=1 bus=node_424989452.1.2.3 conn=delta Kv=13.8 Kva=30.0 %R=0.835
~ wdg=2 bus=node_418163611.1.2.3.4 conn=wye Kv=0.2200 Kva=30.0 %R=0.835
New Transformer.325749160_326733487 phases=3 windings=2 Xhl=3.640
~ wdg=1 bus=node_1948407154.1.2.3 conn=delta Kv=13.8 Kva=30.0 %R=0.835
~ wdg=2 bus=node_1948407180.1.2.3.4 conn=wye Kv=0.2200 Kva=30.0 %R=0.835
New Transformer.326428625_1026588050 phases=3 windings=2 Xhl=3.640
~ wdg=1 bus=node_426778830.1.2.3 conn=delta Kv=13.8 Kva=30.0 %R=0.835
~ wdg=2 bus=node_418171265.1.2.3.4 conn=wye Kv=0.2200 Kva=30.0 %R=0.835
New Transformer.325749414_326691943 phases=3 windings=2 Xhl=3.640
~ wdg=1 bus=node_444804808.1.2.3 conn=delta Kv=13.8 Kva=30.0 %R=0.835
~ wdg=2 bus=node_418074598.1.2.3.4 conn=wye Kv=0.2200 Kva=30.0 %R=0.835
New Transformer.326428840_1074826846 phases=3 windings=2 Xhl=3.640
~ wdg=1 bus=node_426778670.1.2.3 conn=delta Kv=13.8 Kva=30.0 %R=0.835
~ wdg=2 bus=node_418156359.1.2.3.4 conn=wye Kv=0.2200 Kva=30.0 %R=0.835
New Transformer.324956801_326694782 phases=3 windings=2 Xhl=3.640
~ wdg=1 bus=node_444703404.1.2.3 conn=delta Kv=13.8 Kva=30.0 %R=0.835
~ wdg=2 bus=node_418157691.1.2.3.4 conn=wye Kv=0.2200 Kva=30.0 %R=0.835
New Transformer.326192039_2544820436 phases=3 windings=2 Xhl=4.960
~ wdg=1 bus=node_444701021.1.2.3 conn=delta Kv=13.8 Kva=30.0 %R=0.305
~ wdg=2 bus=node_414067234.1.2.3.4 conn=wye Kv=0.2200 Kva=30.0 %R=0.305
New Transformer.326192430_1318936480 phases=3 windings=2 Xhl=3.640
~ wdg=1 bus=node_444702908.1.2.3 conn=delta Kv=13.8 Kva=30.0 %R=0.835
~ wdg=2 bus=node_418163608.1.2.3.4 conn=wye Kv=0.2200 Kva=30.0 %R=0.835
New Transformer.325536914_326665852 phases=3 windings=2 Xhl=3.640
~ wdg=1 bus=node_434938273.1.2.3 conn=delta Kv=13.8 Kva=30.0 %R=0.835
~ wdg=2 bus=node_418154943.1.2.3.4 conn=wye Kv=0.2200 Kva=30.0 %R=0.835
New Transformer.325537077_326694113 phases=3 windings=2 Xhl=3.640
~ wdg=1 bus=node_444315181.1.2.3 conn=delta Kv=13.8 Kva=30.0 %R=0.835
~ wdg=2 bus=node_418163920.1.2.3.4 conn=wye Kv=0.2200 Kva=30.0 %R=0.835
New Transformer.325537895_326696038 phases=3 windings=2 Xhl=3.640
~ wdg=1 bus=node_426776959.1.2.3 conn=delta Kv=13.8 Kva=30.0 %R=0.835
~ wdg=2 bus=node_418072840.1.2.3.4 conn=wye Kv=0.2200 Kva=30.0 %R=0.835
New Transformer.325538246_326733335 phases=3 windings=2 Xhl=3.640
~ wdg=1 bus=node_424989488.1.2.3 conn=delta Kv=13.8 Kva=30.0 %R=0.835
~ wdg=2 bus=node_418163908.1.2.3.4 conn=wye Kv=0.2200 Kva=30.0 %R=0.835
New Transformer.325538013_326710544 phases=3 windings=2 Xhl=3.640
~ wdg=1 bus=node_444701495.1.2.3 conn=delta Kv=13.8 Kva=30.0 %R=0.835
~ wdg=2 bus=node_418148363.1.2.3.4 conn=wye Kv=0.2200 Kva=30.0 %R=0.835
New Transformer.325538855_326730743 phases=3 windings=2 Xhl=3.640
~ wdg=1 bus=node_442582630.1.2.3 conn=delta Kv=13.8 Kva=30.0 %R=0.835
~ wdg=2 bus=node_423709835.1.2.3.4 conn=wye Kv=0.2200 Kva=30.0 %R=0.835
New Transformer.325538428_326696005 phases=3 windings=2 Xhl=3.640
~ wdg=1 bus=node_426592873.1.2.3 conn=delta Kv=13.8 Kva=30.0 %R=0.835
~ wdg=2 bus=node_451519449.1.2.3.4 conn=wye Kv=0.2200 Kva=30.0 %R=0.835
New Transformer.325539432_1347822345 phases=3 windings=2 Xhl=3.640
~ wdg=1 bus=node_426777980.1.2.3 conn=delta Kv=13.8 Kva=30.0 %R=0.835
~ wdg=2 bus=node_418165276.1.2.3.4 conn=wye Kv=0.2200 Kva=30.0 %R=0.835
New Transformer.325540123_326730744 phases=3 windings=2 Xhl=3.640
~ wdg=1 bus=node_442353934.1.2.3 conn=delta Kv=13.8 Kva=30.0 %R=0.835
~ wdg=2 bus=node_423709751.1.2.3.4 conn=wye Kv=0.2200 Kva=30.0 %R=0.835
New Transformer.325540992_326662868 phases=3 windings=2 Xhl=3.640
~ wdg=1 bus=node_435264708.1.2.3 conn=delta Kv=13.8 Kva=30.0 %R=0.835
~ wdg=2 bus=node_418147133.1.2.3.4 conn=wye Kv=0.2200 Kva=30.0 %R=0.835
New Transformer.1415401200_1415401199 phases=3 windings=2 Xhl=3.640
~ wdg=1 bus=node_1712696414.1.2.3 conn=delta Kv=13.8 Kva=30.0 %R=0.835
~ wdg=2 bus=node_1712696403.1.2.3.4 conn=wye Kv=0.2200 Kva=30.0 %R=0.835
New Transformer.1443552653_1443552654 phases=3 windings=2 Xhl=3.640
~ wdg=1 bus=node_1761823936.1.2.3 conn=delta Kv=13.8 Kva=30.0 %R=0.835
~ wdg=2 bus=node_1761823948.1.2.3.4 conn=wye Kv=0.2200 Kva=30.0 %R=0.835
New Transformer.324954657_326693490 phases=3 windings=2 Xhl=3.640
~ wdg=1 bus=node_444703394.1.2.3 conn=delta Kv=13.8 Kva=30.0 %R=0.835
~ wdg=2 bus=node_418813016.1.2.3.4 conn=wye Kv=0.2200 Kva=30.0 %R=0.835
New Transformer.324954961_1608635560 phases=3 windings=2 Xhl=3.640
~ wdg=1 bus=node_442583295.1.2.3 conn=delta Kv=13.8 Kva=30.0 %R=0.835
~ wdg=2 bus=node_412327219.1.2.3.4 conn=wye Kv=0.2200 Kva=30.0 %R=0.835
New Transformer.565923468_565923467 phases=3 windings=2 Xhl=3.640
~ wdg=1 bus=node_834397241.1.2.3 conn=delta Kv=13.8 Kva=30.0 %R=0.835
~ wdg=2 bus=node_834397285.1.2.3.4 conn=wye Kv=0.2200 Kva=30.0 %R=0.835
New Transformer.325926078_326665904 phases=3 windings=2 Xhl=3.640
~ wdg=1 bus=node_444703374.1.2.3 conn=delta Kv=13.8 Kva=30.0 %R=0.835
~ wdg=2 bus=node_418156365.1.2.3.4 conn=wye Kv=0.2200 Kva=30.0 %R=0.835
New Transformer.325924576_326691948 phases=3 windings=2 Xhl=3.640
~ wdg=1 bus=node_426246092.1.2.3 conn=delta Kv=13.8 Kva=30.0 %R=0.835
~ wdg=2 bus=node_414044417.1.2.3.4 conn=wye Kv=0.2200 Kva=30.0 %R=0.835
New Transformer.325923923_326429231 phases=3 windings=2 Xhl=3.640
~ wdg=1 bus=node_444703069.1.2.3 conn=delta Kv=13.8 Kva=30.0 %R=0.835
~ wdg=2 bus=node_418155732.1.2.3.4 conn=wye Kv=0.2200 Kva=30.0 %R=0.835
New Transformer.326425952_2636149095 phases=1 windings=3 Xhl=4.960 Xht=4.960 Xlt=2.480
~ wdg=1 bus=node_442583015.2 conn=wye Kv=7.9674 Kva=25.0 %R=0.305
~ wdg=2 bus=node_415708706.1.4 conn=wye Kv=0.1200 Kva=25.0 %R=0.305
~ wdg=3 bus=node_415708706.4.2 conn=wye Kv=0.1200 Kva=25.0 %R=0.305
New Transformer.325747448_326662961 phases=1 windings=3 Xhl=2.058 Xht=2.058 Xlt=1.029
~ wdg=1 bus=node_435081885.1 conn=wye Kv=7.9674 Kva=25.0 %R=0.710
~ wdg=2 bus=node_418155672.1.4 conn=wye Kv=0.1200 Kva=25.0 %R=0.710
~ wdg=3 bus=node_418155672.4.2 conn=wye Kv=0.1200 Kva=25.0 %R=0.710
New Transformer.326426695_2610060674 phases=1 windings=3 Xhl=2.058 Xht=2.058 Xlt=1.029
~ wdg=1 bus=node_435084300.1 conn=wye Kv=7.9674 Kva=25.0 %R=0.710
~ wdg=2 bus=node_415710647.1.4 conn=wye Kv=0.1200 Kva=25.0 %R=0.710
~ wdg=3 bus=node_415710647.4.2 conn=wye Kv=0.1200 Kva=25.0 %R=0.710
New Transformer.326426496_326665853 phases=1 windings=3 Xhl=2.058 Xht=2.058 Xlt=1.029
~ wdg=1 bus=node_435733786.1 conn=wye Kv=7.9674 Kva=25.0 %R=0.710
~ wdg=2 bus=node_418155012.1.4 conn=wye Kv=0.1200 Kva=25.0 %R=0.710
~ wdg=3 bus=node_418155012.4.2 conn=wye Kv=0.1200 Kva=25.0 %R=0.710
New Transformer.325747910_326731850 phases=1 windings=3 Xhl=2.058 Xht=2.058 Xlt=1.029
~ wdg=1 bus=node_442354399.1 conn=wye Kv=7.9674 Kva=25.0 %R=0.710
~ wdg=2 bus=node_413997332.1.4 conn=wye Kv=0.1200 Kva=25.0 %R=0.710
~ wdg=3 bus=node_413997332.4.2 conn=wye Kv=0.1200 Kva=25.0 %R=0.710
New Transformer.325748412_2572097859 phases=1 windings=3 Xhl=2.058 Xht=2.058 Xlt=1.029
~ wdg=1 bus=node_435737106.2 conn=wye Kv=7.9674 Kva=25.0 %R=0.710
~ wdg=2 bus=node_412378994.1.4 conn=wye Kv=0.1200 Kva=25.0 %R=0.710
~ wdg=3 bus=node_412378994.4.2 conn=wye Kv=0.1200 Kva=25.0 %R=0.710
New Transformer.325749068_1591631217 phases=1 windings=3 Xhl=2.058 Xht=2.058 Xlt=1.029
~ wdg=1 bus=node_426415703.1 conn=wye Kv=7.9674 Kva=25.0 %R=0.710
~ wdg=2 bus=node_418459671.1.4 conn=wye Kv=0.1200 Kva=25.0 %R=0.710
~ wdg=3 bus=node_418459671.4.2 conn=wye Kv=0.1200 Kva=25.0 %R=0.710
New Transformer.325749370_2284588355 phases=1 windings=3 Xhl=2.058 Xht=2.058 Xlt=1.029
~ wdg=1 bus=node_435262239.3 conn=wye Kv=7.9674 Kva=25.0 %R=0.710
~ wdg=2 bus=node_423120916.1.4 conn=wye Kv=0.1200 Kva=25.0 %R=0.710
~ wdg=3 bus=node_423120916.4.2 conn=wye Kv=0.1200 Kva=25.0 %R=0.710
New Transformer.325749851_326734237 phases=1 windings=3 Xhl=1.625 Xht=1.625 Xlt=0.812
~ wdg=1 bus=node_443251413.2 conn=wye Kv=7.9674 Kva=25.0 %R=0.950
~ wdg=2 bus=node_419118925.1.4 conn=wye Kv=0.1200 Kva=25.0 %R=0.950
~ wdg=3 bus=node_419118925.4.2 conn=wye Kv=0.1200 Kva=25.0 %R=0.950
New Transformer.325749987_1360030263 phases=1 windings=3 Xhl=2.058 Xht=2.058 Xlt=1.029
~ wdg=1 bus=node_444701415.3 conn=wye Kv=7.9674 Kva=25.0 %R=0.710
~ wdg=2 bus=node_418146257.1.4 conn=wye Kv=0.1200 Kva=25.0 %R=0.710
~ wdg=3 bus=node_418146257.4.2 conn=wye Kv=0.1200 Kva=25.0 %R=0.710
New Transformer.325749940_1565107296 phases=1 windings=3 Xhl=2.058 Xht=2.058 Xlt=1.029
~ wdg=1 bus=node_442583874.1 conn=wye Kv=7.9674 Kva=25.0 %R=0.710
~ wdg=2 bus=node_419616627.1.4 conn=wye Kv=0.1200 Kva=25.0 %R=0.710
~ wdg=3 bus=node_419616627.4.2 conn=wye Kv=0.1200 Kva=25.0 %R=0.710
New Transformer.325750416_326665862 phases=1 windings=3 Xhl=2.058 Xht=2.058 Xlt=1.029
~ wdg=1 bus=node_434766310.1 conn=wye Kv=7.9674 Kva=25.0 %R=0.710
~ wdg=2 bus=node_413993489.1.4 conn=wye Kv=0.1200 Kva=25.0 %R=0.710
~ wdg=3 bus=node_413993489.4.2 conn=wye Kv=0.1200 Kva=25.0 %R=0.710
New Transformer.325927365_2188205226 phases=1 windings=3 Xhl=2.058 Xht=2.058 Xlt=1.029
~ wdg=1 bus=node_426778430.1 conn=wye Kv=7.9674 Kva=25.0 %R=0.710
~ wdg=2 bus=node_412126940.1.4 conn=wye Kv=0.1200 Kva=25.0 %R=0.710
~ wdg=3 bus=node_412126940.4.2 conn=wye Kv=0.1200 Kva=25.0 %R=0.710
New Transformer.325750648_326691903 phases=1 windings=3 Xhl=2.058 Xht=2.058 Xlt=1.029
~ wdg=1 bus=node_435736301.1 conn=wye Kv=7.9674 Kva=25.0 %R=0.710
~ wdg=2 bus=node_418155015.1.4 conn=wye Kv=0.1200 Kva=25.0 %R=0.710
~ wdg=3 bus=node_418155015.4.2 conn=wye Kv=0.1200 Kva=25.0 %R=0.710
New Transformer.325750854_326662951 phases=1 windings=3 Xhl=2.058 Xht=2.058 Xlt=1.029
~ wdg=1 bus=node_433166565.3 conn=wye Kv=7.9674 Kva=25.0 %R=0.710
~ wdg=2 bus=node_423120145.1.4 conn=wye Kv=0.1200 Kva=25.0 %R=0.710
~ wdg=3 bus=node_423120145.4.2 conn=wye Kv=0.1200 Kva=25.0 %R=0.710
New Transformer.326191111_326710571 phases=1 windings=3 Xhl=2.058 Xht=2.058 Xlt=1.029
~ wdg=1 bus=node_435737886.1 conn=wye Kv=7.9674 Kva=25.0 %R=0.710
~ wdg=2 bus=node_418147814.1.4 conn=wye Kv=0.1200 Kva=25.0 %R=0.710
~ wdg=3 bus=node_418147814.4.2 conn=wye Kv=0.1200 Kva=25.0 %R=0.710
New Transformer.326193248_1431473685 phases=1 windings=3 Xhl=2.058 Xht=2.058 Xlt=1.029
~ wdg=1 bus=node_442582580.3 conn=wye Kv=7.9674 Kva=25.0 %R=0.710
~ wdg=2 bus=node_415879612.1.4 conn=wye Kv=0.1200 Kva=25.0 %R=0.710
~ wdg=3 bus=node_415879612.4.2 conn=wye Kv=0.1200 Kva=25.0 %R=0.710
New Transformer.325537786_326691901 phases=1 windings=3 Xhl=2.058 Xht=2.058 Xlt=1.029
~ wdg=1 bus=node_435425523.3 conn=wye Kv=7.9674 Kva=25.0 %R=0.710
~ wdg=2 bus=node_418156779.1.4 conn=wye Kv=0.1200 Kva=25.0 %R=0.710
~ wdg=3 bus=node_418156779.4.2 conn=wye Kv=0.1200 Kva=25.0 %R=0.710
New Transformer.325539834_326756609 phases=1 windings=3 Xhl=2.058 Xht=2.058 Xlt=1.029
~ wdg=1 bus=node_435899443.2 conn=wye Kv=7.9674 Kva=25.0 %R=0.710
~ wdg=2 bus=node_420105187.1.4 conn=wye Kv=0.1200 Kva=25.0 %R=0.710
~ wdg=3 bus=node_420105187.4.2 conn=wye Kv=0.1200 Kva=25.0 %R=0.710
New Transformer.325539823_326733507 phases=1 windings=3 Xhl=2.058 Xht=2.058 Xlt=1.029
~ wdg=1 bus=node_435427613.1 conn=wye Kv=7.9674 Kva=25.0 %R=0.710
~ wdg=2 bus=node_418154955.1.4 conn=wye Kv=0.1200 Kva=25.0 %R=0.710
~ wdg=3 bus=node_418154955.4.2 conn=wye Kv=0.1200 Kva=25.0 %R=0.710
New Transformer.325540107_678366120 phases=1 windings=3 Xhl=2.058 Xht=2.058 Xlt=1.029
~ wdg=1 bus=node_426416813.3 conn=wye Kv=7.9674 Kva=25.0 %R=0.710
~ wdg=2 bus=node_423592715.1.4 conn=wye Kv=0.1200 Kva=25.0 %R=0.710
~ wdg=3 bus=node_423592715.4.2 conn=wye Kv=0.1200 Kva=25.0 %R=0.710
New Transformer.1414812920_1414812919 phases=1 windings=3 Xhl=2.058 Xht=2.058 Xlt=1.029
~ wdg=1 bus=node_1712163855.3 conn=wye Kv=7.9674 Kva=25.0 %R=0.710
~ wdg=2 bus=node_1712163880.1.4 conn=wye Kv=0.1200 Kva=25.0 %R=0.710
~ wdg=3 bus=node_1712163880.4.2 conn=wye Kv=0.1200 Kva=25.0 %R=0.710
New Transformer.1338173613_1338173612 phases=1 windings=3 Xhl=2.058 Xht=2.058 Xlt=1.029
~ wdg=1 bus=node_1633218692.1 conn=wye Kv=7.9674 Kva=25.0 %R=0.710
~ wdg=2 bus=node_1633218672.1.4 conn=wye Kv=0.1200 Kva=25.0 %R=0.710
~ wdg=3 bus=node_1633218672.4.2 conn=wye Kv=0.1200 Kva=25.0 %R=0.710
New Transformer.1441933791_1441933790 phases=1 windings=3 Xhl=2.058 Xht=2.058 Xlt=1.029
~ wdg=1 bus=node_442582880.1 conn=wye Kv=7.9674 Kva=25.0 %R=0.710
~ wdg=2 bus=node_419481612.1.4 conn=wye Kv=0.1200 Kva=25.0 %R=0.710
~ wdg=3 bus=node_419481612.4.2 conn=wye Kv=0.1200 Kva=25.0 %R=0.710
New Transformer.1357118702_1357118701 phases=1 windings=3 Xhl=2.058 Xht=2.058 Xlt=1.029
~ wdg=1 bus=node_442583210.1 conn=wye Kv=7.9674 Kva=25.0 %R=0.710
~ wdg=2 bus=node_414561282.1.4 conn=wye Kv=0.1200 Kva=25.0 %R=0.710
~ wdg=3 bus=node_414561282.4.2 conn=wye Kv=0.1200 Kva=25.0 %R=0.710
New Transformer.325926422_2663822488 phases=1 windings=3 Xhl=2.058 Xht=2.058 Xlt=1.029
~ wdg=1 bus=node_442354873.2 conn=wye Kv=7.9674 Kva=25.0 %R=0.710
~ wdg=2 bus=node_415745968.1.4 conn=wye Kv=0.1200 Kva=25.0 %R=0.710
~ wdg=3 bus=node_415745968.4.2 conn=wye Kv=0.1200 Kva=25.0 %R=0.710
New Transformer.325923933_326691891 phases=1 windings=3 Xhl=2.058 Xht=2.058 Xlt=1.029
~ wdg=1 bus=node_444702924.1 conn=wye Kv=7.9674 Kva=25.0 %R=0.710
~ wdg=2 bus=node_418155666.1.4 conn=wye Kv=0.1200 Kva=25.0 %R=0.710
~ wdg=3 bus=node_418155666.4.2 conn=wye Kv=0.1200 Kva=25.0 %R=0.710
New Transformer.326425681_326662947 phases=1 windings=3 Xhl=1.921 Xht=1.921 Xlt=0.961
~ wdg=1 bus=node_434765965.1 conn=wye Kv=7.9674 Kva=15.0 %R=0.800
~ wdg=2 bus=node_413995418.1.4 conn=wye Kv=0.1200 Kva=15.0 %R=0.800
~ wdg=3 bus=node_413995418.4.2 conn=wye Kv=0.1200 Kva=15.0 %R=0.800
New Transformer.326425807_326712423 phases=1 windings=3 Xhl=1.921 Xht=1.921 Xlt=0.961
~ wdg=1 bus=node_442354159.2 conn=wye Kv=7.9674 Kva=15.0 %R=0.800
~ wdg=2 bus=node_414560397.1.4 conn=wye Kv=0.1200 Kva=15.0 %R=0.800
~ wdg=3 bus=node_414560397.4.2 conn=wye Kv=0.1200 Kva=15.0 %R=0.800
New Transformer.325747391_326665855 phases=1 windings=3 Xhl=1.921 Xht=1.921 Xlt=0.961
~ wdg=1 bus=node_435737656.1 conn=wye Kv=7.9674 Kva=15.0 %R=0.800
~ wdg=2 bus=node_418155354.1.4 conn=wye Kv=0.1200 Kva=15.0 %R=0.800
~ wdg=3 bus=node_418155354.4.2 conn=wye Kv=0.1200 Kva=15.0 %R=0.800
New Transformer.325747256_326662963 phases=1 windings=3 Xhl=1.921 Xht=1.921 Xlt=0.961
~ wdg=1 bus=node_435569255.1 conn=wye Kv=7.9674 Kva=15.0 %R=0.800
~ wdg=2 bus=node_418155033.1.4 conn=wye Kv=0.1200 Kva=15.0 %R=0.800
~ wdg=3 bus=node_418155033.4.2 conn=wye Kv=0.1200 Kva=15.0 %R=0.800
New Transformer.326426464_326713087 phases=1 windings=3 Xhl=1.921 Xht=1.921 Xlt=0.961
~ wdg=1 bus=node_435737816.3 conn=wye Kv=7.9674 Kva=15.0 %R=0.800
~ wdg=2 bus=node_419924784.1.4 conn=wye Kv=0.1200 Kva=15.0 %R=0.800
~ wdg=3 bus=node_419924784.4.2 conn=wye Kv=0.1200 Kva=15.0 %R=0.800
New Transformer.326426266_326691918 phases=1 windings=3 Xhl=1.921 Xht=1.921 Xlt=0.961
~ wdg=1 bus=node_433167480.2 conn=wye Kv=7.9674 Kva=15.0 %R=0.800
~ wdg=2 bus=node_418149482.1.4 conn=wye Kv=0.1200 Kva=15.0 %R=0.800
~ wdg=3 bus=node_418149482.4.2 conn=wye Kv=0.1200 Kva=15.0 %R=0.800
New Transformer.325747202_326712820 phases=1 windings=3 Xhl=1.921 Xht=1.921 Xlt=0.961
~ wdg=1 bus=node_442582725.1 conn=wye Kv=7.9674 Kva=15.0 %R=0.800
~ wdg=2 bus=node_423653411.1.4 conn=wye Kv=0.1200 Kva=15.0 %R=0.800
~ wdg=3 bus=node_423653411.4.2 conn=wye Kv=0.1200 Kva=15.0 %R=0.800
New Transformer.326426010_326680023 phases=1 windings=3 Xhl=1.921 Xht=1.921 Xlt=0.961
~ wdg=1 bus=node_442354898.2 conn=wye Kv=7.9674 Kva=15.0 %R=0.800
~ wdg=2 bus=node_415975946.1.4 conn=wye Kv=0.1200 Kva=15.0 %R=0.800
~ wdg=3 bus=node_415975946.4.2 conn=wye Kv=0.1200 Kva=15.0 %R=0.800
New Transformer.326426584_326681674 phases=1 windings=3 Xhl=1.921 Xht=1.921 Xlt=0.961
~ wdg=1 bus=node_433339775.1 conn=wye Kv=7.9674 Kva=15.0 %R=0.800
~ wdg=2 bus=node_418146866.1.4 conn=wye Kv=0.1200 Kva=15.0 %R=0.800
~ wdg=3 bus=node_418146866.4.2 conn=wye Kv=0.1200 Kva=15.0 %R=0.800
New Transformer.325747453_326710541 phases=3 windings=2 Xhl=3.480
~ wdg=1 bus=node_435424543.1.2.3 conn=delta Kv=13.8 Kva=15.0 %R=0.985
~ wdg=2 bus=node_418155765.1.2.3.4 conn=wye Kv=0.2200 Kva=15.0 %R=0.985
New Transformer.325748057_326733503 phases=1 windings=3 Xhl=1.921 Xht=1.921 Xlt=0.961
~ wdg=1 bus=node_435569160.1 conn=wye Kv=7.9674 Kva=15.0 %R=0.800
~ wdg=2 bus=node_418155348.1.4 conn=wye Kv=0.1200 Kva=15.0 %R=0.800
~ wdg=3 bus=node_418155348.4.2 conn=wye Kv=0.1200 Kva=15.0 %R=0.800
New Transformer.326426927_326731864 phases=1 windings=3 Xhl=1.921 Xht=1.921 Xlt=0.961
~ wdg=1 bus=node_435567716.3 conn=wye Kv=7.9674 Kva=15.0 %R=0.800
~ wdg=2 bus=node_418147808.1.4 conn=wye Kv=0.1200 Kva=15.0 %R=0.800
~ wdg=3 bus=node_418147808.4.2 conn=wye Kv=0.1200 Kva=15.0 %R=0.800
New Transformer.326426806_326662960 phases=1 windings=3 Xhl=1.921 Xht=1.921 Xlt=0.961
~ wdg=1 bus=node_426246272.1 conn=wye Kv=7.9674 Kva=15.0 %R=0.800
~ wdg=2 bus=node_449540309.1.4 conn=wye Kv=0.1200 Kva=15.0 %R=0.800
~ wdg=3 bus=node_449540309.4.2 conn=wye Kv=0.1200 Kva=15.0 %R=0.800
New Transformer.326426829_326665858 phases=1 windings=3 Xhl=1.921 Xht=1.921 Xlt=0.961
~ wdg=1 bus=node_434766600.2 conn=wye Kv=7.9674 Kva=15.0 %R=0.800
~ wdg=2 bus=node_413997113.1.4 conn=wye Kv=0.1200 Kva=15.0 %R=0.800
~ wdg=3 bus=node_413997113.4.2 conn=wye Kv=0.1200 Kva=15.0 %R=0.800
New Transformer.326426835_326680035 phases=1 windings=3 Xhl=1.921 Xht=1.921 Xlt=0.961
~ wdg=1 bus=node_442583160.2 conn=wye Kv=7.9674 Kva=15.0 %R=0.800
~ wdg=2 bus=node_412303070.1.4 conn=wye Kv=0.1200 Kva=15.0 %R=0.800
~ wdg=3 bus=node_412303070.4.2 conn=wye Kv=0.1200 Kva=15.0 %R=0.800
New Transformer.326426762_326695899 phases=1 windings=3 Xhl=1.921 Xht=1.921 Xlt=0.961
~ wdg=1 bus=node_435567676.3 conn=wye Kv=7.9674 Kva=15.0 %R=0.800
~ wdg=2 bus=node_418147139.1.4 conn=wye Kv=0.1200 Kva=15.0 %R=0.800
~ wdg=3 bus=node_418147139.4.2 conn=wye Kv=0.1200 Kva=15.0 %R=0.800
New Transformer.326426772_326681498 phases=1 windings=3 Xhl=1.921 Xht=1.921 Xlt=0.961
~ wdg=1 bus=node_444701510.3 conn=wye Kv=7.9674 Kva=15.0 %R=0.800
~ wdg=2 bus=node_414066721.1.4 conn=wye Kv=0.1200 Kva=15.0 %R=0.800
~ wdg=3 bus=node_414066721.4.2 conn=wye Kv=0.1200 Kva=15.0 %R=0.800
New Transformer.326427487_326709551 phases=1 windings=3 Xhl=1.921 Xht=1.921 Xlt=0.961
~ wdg=1 bus=node_426779295.1 conn=wye Kv=7.9674 Kva=15.0 %R=0.800
~ wdg=2 bus=node_418416577.1.4 conn=wye Kv=0.1200 Kva=15.0 %R=0.800
~ wdg=3 bus=node_418416577.4.2 conn=wye Kv=0.1200 Kva=15.0 %R=0.800
New Transformer.326427605_326662864 phases=1 windings=3 Xhl=1.921 Xht=1.921 Xlt=0.961
~ wdg=1 bus=node_438671834.1 conn=wye Kv=7.9674 Kva=15.0 %R=0.800
~ wdg=2 bus=node_456868009.1.4 conn=wye Kv=0.1200 Kva=15.0 %R=0.800
~ wdg=3 bus=node_456868009.4.2 conn=wye Kv=0.1200 Kva=15.0 %R=0.800
New Transformer.325749026_326664117 phases=1 windings=3 Xhl=1.921 Xht=1.921 Xlt=0.961
~ wdg=1 bus=node_442584048.3 conn=wye Kv=7.9674 Kva=15.0 %R=0.800
~ wdg=2 bus=node_415775770.1.4 conn=wye Kv=0.1200 Kva=15.0 %R=0.800
~ wdg=3 bus=node_415775770.4.2 conn=wye Kv=0.1200 Kva=15.0 %R=0.800
New Transformer.326427877_326680451 phases=1 windings=3 Xhl=1.921 Xht=1.921 Xlt=0.961
~ wdg=1 bus=node_434935421.1 conn=wye Kv=7.9674 Kva=15.0 %R=0.800
~ wdg=2 bus=node_423705248.1.4 conn=wye Kv=0.1200 Kva=15.0 %R=0.800
~ wdg=3 bus=node_423705248.4.2 conn=wye Kv=0.1200 Kva=15.0 %R=0.800
New Transformer.325748690_326731842 phases=1 windings=3 Xhl=1.921 Xht=1.921 Xlt=0.961
~ wdg=1 bus=node_444701534.2 conn=wye Kv=7.9674 Kva=15.0 %R=0.800
~ wdg=2 bus=node_455527501.1.4 conn=wye Kv=0.1200 Kva=15.0 %R=0.800
~ wdg=3 bus=node_455527501.4.2 conn=wye Kv=0.1200 Kva=15.0 %R=0.800
New Transformer.326428078_326665869 phases=1 windings=3 Xhl=1.921 Xht=1.921 Xlt=0.961
~ wdg=1 bus=node_435734561.3 conn=wye Kv=7.9674 Kva=15.0 %R=0.800
~ wdg=2 bus=node_418147148.1.4 conn=wye Kv=0.1200 Kva=15.0 %R=0.800
~ wdg=3 bus=node_418147148.4.2 conn=wye Kv=0.1200 Kva=15.0 %R=0.800
New Transformer.326427980_326712161 phases=1 windings=3 Xhl=1.921 Xht=1.921 Xlt=0.961
~ wdg=1 bus=node_435263804.1 conn=wye Kv=7.9674 Kva=15.0 %R=0.800
~ wdg=2 bus=node_416091062.1.4 conn=wye Kv=0.1200 Kva=15.0 %R=0.800
~ wdg=3 bus=node_416091062.4.2 conn=wye Kv=0.1200 Kva=15.0 %R=0.800
New Transformer.326428046_326665849 phases=3 windings=2 Xhl=3.480
~ wdg=1 bus=node_433339280.1.2.3 conn=delta Kv=13.8 Kva=15.0 %R=0.985
~ wdg=2 bus=node_418147118.1.2.3.4 conn=wye Kv=0.2200 Kva=15.0 %R=0.985
New Transformer.325749238_326681502 phases=1 windings=3 Xhl=1.921 Xht=1.921 Xlt=0.961
~ wdg=1 bus=node_442582815.3 conn=wye Kv=7.9674 Kva=15.0 %R=0.800
~ wdg=2 bus=node_418163602.1.4 conn=wye Kv=0.1200 Kva=15.0 %R=0.800
~ wdg=3 bus=node_418163602.4.2 conn=wye Kv=0.1200 Kva=15.0 %R=0.800
New Transformer.325749158_326664624 phases=1 windings=3 Xhl=1.921 Xht=1.921 Xlt=0.961
~ wdg=1 bus=node_438205371.1 conn=wye Kv=7.9674 Kva=15.0 %R=0.800
~ wdg=2 bus=node_419871482.1.4 conn=wye Kv=0.1200 Kva=15.0 %R=0.800
~ wdg=3 bus=node_419871482.4.2 conn=wye Kv=0.1200 Kva=15.0 %R=0.800
New Transformer.325749383_759771779 phases=1 windings=3 Xhl=1.921 Xht=1.921 Xlt=0.961
~ wdg=1 bus=node_435263859.1 conn=wye Kv=7.9674 Kva=15.0 %R=0.800
~ wdg=2 bus=node_418140799.1.4 conn=wye Kv=0.1200 Kva=15.0 %R=0.800
~ wdg=3 bus=node_418140799.4.2 conn=wye Kv=0.1200 Kva=15.0 %R=0.800
New Transformer.325749411_326681713 phases=3 windings=2 Xhl=3.480
~ wdg=1 bus=node_435424948.1.2.3 conn=delta Kv=13.8 Kva=15.0 %R=0.985
~ wdg=2 bus=node_414043298.1.2.3.4 conn=wye Kv=0.2200 Kva=15.0 %R=0.985
New Transformer.325749736_326712255 phases=1 windings=3 Xhl=1.921 Xht=1.921 Xlt=0.961
~ wdg=1 bus=node_435898138.3 conn=wye Kv=7.9674 Kva=15.0 %R=0.800
~ wdg=2 bus=node_420104809.1.4 conn=wye Kv=0.1200 Kva=15.0 %R=0.800
~ wdg=3 bus=node_420104809.4.2 conn=wye Kv=0.1200 Kva=15.0 %R=0.800
New Transformer.325749722_326710538 phases=1 windings=3 Xhl=1.921 Xht=1.921 Xlt=0.961
~ wdg=1 bus=node_435567001.1 conn=wye Kv=7.9674 Kva=15.0 %R=0.800
~ wdg=2 bus=node_418154949.1.4 conn=wye Kv=0.1200 Kva=15.0 %R=0.800
~ wdg=3 bus=node_418154949.4.2 conn=wye Kv=0.1200 Kva=15.0 %R=0.800
New Transformer.326428563_326679743 phases=1 windings=3 Xhl=1.921 Xht=1.921 Xlt=0.961
~ wdg=1 bus=node_435265585.1 conn=wye Kv=7.9674 Kva=15.0 %R=0.800
~ wdg=2 bus=node_415613440.1.4 conn=wye Kv=0.1200 Kva=15.0 %R=0.800
~ wdg=3 bus=node_415613440.4.2 conn=wye Kv=0.1200 Kva=15.0 %R=0.800
New Transformer.325749894_326691936 phases=1 windings=3 Xhl=1.921 Xht=1.921 Xlt=0.961
~ wdg=1 bus=node_442584173.2 conn=wye Kv=7.9674 Kva=15.0 %R=0.800
~ wdg=2 bus=node_418147277.1.4 conn=wye Kv=0.1200 Kva=15.0 %R=0.800
~ wdg=3 bus=node_418147277.4.2 conn=wye Kv=0.1200 Kva=15.0 %R=0.800
New Transformer.325749817_326691920 phases=1 windings=3 Xhl=1.921 Xht=1.921 Xlt=0.961
~ wdg=1 bus=node_435426553.3 conn=wye Kv=7.9674 Kva=15.0 %R=0.800
~ wdg=2 bus=node_418146896.1.4 conn=wye Kv=0.1200 Kva=15.0 %R=0.800
~ wdg=3 bus=node_418146896.4.2 conn=wye Kv=0.1200 Kva=15.0 %R=0.800
New Transformer.324956588_326665857 phases=3 windings=2 Xhl=3.480
~ wdg=1 bus=node_444703379.1.2.3 conn=delta Kv=13.8 Kva=15.0 %R=0.985
~ wdg=2 bus=node_418154871.1.2.3.4 conn=wye Kv=0.2200 Kva=15.0 %R=0.985
New Transformer.324956449_326679785 phases=1 windings=3 Xhl=1.921 Xht=1.921 Xlt=0.961
~ wdg=1 bus=node_434765895.1 conn=wye Kv=7.9674 Kva=15.0 %R=0.800
~ wdg=2 bus=node_415745158.1.4 conn=wye Kv=0.1200 Kva=15.0 %R=0.800
~ wdg=3 bus=node_415745158.4.2 conn=wye Kv=0.1200 Kva=15.0 %R=0.800
New Transformer.324956422_326693761 phases=1 windings=3 Xhl=1.921 Xht=1.921 Xlt=0.961
~ wdg=1 bus=node_426777580.1 conn=wye Kv=7.9674 Kva=15.0 %R=0.800
~ wdg=2 bus=node_418440920.1.4 conn=wye Kv=0.1200 Kva=15.0 %R=0.800
~ wdg=3 bus=node_418440920.4.2 conn=wye Kv=0.1200 Kva=15.0 %R=0.800
New Transformer.325750397_326731852 phases=1 windings=3 Xhl=1.921 Xht=1.921 Xlt=0.961
~ wdg=1 bus=node_433339455.1 conn=wye Kv=7.9674 Kva=15.0 %R=0.800
~ wdg=2 bus=node_418147127.1.4 conn=wye Kv=0.1200 Kva=15.0 %R=0.800
~ wdg=3 bus=node_418147127.4.2 conn=wye Kv=0.1200 Kva=15.0 %R=0.800
New Transformer.325927312_326664220 phases=1 windings=3 Xhl=1.921 Xht=1.921 Xlt=0.961
~ wdg=1 bus=node_434353431.2 conn=wye Kv=7.9674 Kva=15.0 %R=0.800
~ wdg=2 bus=node_419857372.1.4 conn=wye Kv=0.1200 Kva=15.0 %R=0.800
~ wdg=3 bus=node_419857372.4.2 conn=wye Kv=0.1200 Kva=15.0 %R=0.800
New Transformer.324956829_326663599 phases=1 windings=3 Xhl=1.921 Xht=1.921 Xlt=0.961
~ wdg=1 bus=node_432931321.1 conn=wye Kv=7.9674 Kva=15.0 %R=0.800
~ wdg=2 bus=node_418297256.1.4 conn=wye Kv=0.1200 Kva=15.0 %R=0.800
~ wdg=3 bus=node_418297256.4.2 conn=wye Kv=0.1200 Kva=15.0 %R=0.800
New Transformer.325750510_326681685 phases=1 windings=3 Xhl=1.921 Xht=1.921 Xlt=0.961
~ wdg=1 bus=node_433338817.1 conn=wye Kv=7.9674 Kva=15.0 %R=0.800
~ wdg=2 bus=node_418146224.1.4 conn=wye Kv=0.1200 Kva=15.0 %R=0.800
~ wdg=3 bus=node_418146224.4.2 conn=wye Kv=0.1200 Kva=15.0 %R=0.800
New Transformer.325751143_326694423 phases=1 windings=3 Xhl=1.921 Xht=1.921 Xlt=0.961
~ wdg=1 bus=node_435736391.2 conn=wye Kv=7.9674 Kva=15.0 %R=0.800
~ wdg=2 bus=node_419926719.1.4 conn=wye Kv=0.1200 Kva=15.0 %R=0.800
~ wdg=3 bus=node_419926719.4.2 conn=wye Kv=0.1200 Kva=15.0 %R=0.800
New Transformer.326189483_326731836 phases=1 windings=3 Xhl=1.921 Xht=1.921 Xlt=0.961
~ wdg=1 bus=node_432932701.3 conn=wye Kv=7.9674 Kva=15.0 %R=0.800
~ wdg=2 bus=node_414020323.1.4 conn=wye Kv=0.1200 Kva=15.0 %R=0.800
~ wdg=3 bus=node_414020323.4.2 conn=wye Kv=0.1200 Kva=15.0 %R=0.800
New Transformer.325751168_326429020 phases=1 windings=3 Xhl=1.921 Xht=1.921 Xlt=0.961
~ wdg=1 bus=node_426592728.1 conn=wye Kv=7.9674 Kva=15.0 %R=0.800
~ wdg=2 bus=node_415084806.1.4 conn=wye Kv=0.1200 Kva=15.0 %R=0.800
~ wdg=3 bus=node_415084806.4.2 conn=wye Kv=0.1200 Kva=15.0 %R=0.800
New Transformer.326189934_326665886 phases=1 windings=3 Xhl=1.921 Xht=1.921 Xlt=0.961
~ wdg=1 bus=node_433169008.2 conn=wye Kv=7.9674 Kva=15.0 %R=0.800
~ wdg=2 bus=node_418148393.1.4 conn=wye Kv=0.1200 Kva=15.0 %R=0.800
...